"""
! Skeletal mechanism derived with NLO (Jaravel et al., submitted to Combustion and Flame)
! 20% error tolerance, 101 species
! Based on POLIMI_TOT_1412
! CRECK Modeling Group (Politecnico di Milano)
! http://creckmodeling.chem.polimi.it/
!
! POLIMI_TOT_1412 kinetic mechanism
! Version 1412, December 2014
! Detailed and lumped mechanism of pyrolysis, partial oxidation and combustion of hydrocarbon and oxygenated fuels.
! High and Low Temperature Kinetic scheme: 451 species 17848 reactions.
!
! References
!
!E. Ranzi, A. Frassoldati, R. Grana, A. Cuoci, T. Faravelli, A.P. Kelley, C.K. Law,
!Hierarchical and comparative kinetic modeling of laminar flame speeds of hydrocarbon and oxygenated fuels,
!Progress in Energy and Combustion Science, 38 (4), pp. 468-501 (2012), DOI: 10.1016/j.pecs.2012.03.004
"""

units(length='cm', time='s', quantity='mol', act_energy='cal/mol')

ideal_gas(name='gas',
          elements="C H O N",
          species="""N2           IC8H18       TMBENZ       NPBENZ
                     NC12H26      CO2          H2O          O2
                     H2           CO           OH           HO2
                     C3H6         HCO3         CH2CHO       C2H5OO
                     CH3CHO       CH3          NC5H10       C6H5
                     HCO          CH3OOH       NC7H14       C2H4
                     CH3O         C2H3         CH2O         H2O2
                     NC12-QOOH    NC12H25      NC12-OQOOH   NC10H20
                     NC12-OOQOOH  H            O            HCO3H
                     C2H2         CH2CO        C2H6         AC3H4
                     C2H3CHO      C2H5CHO      IC4H8        NC4H8
                     NC4-OQOOH    CYC5H6       NC5-OQOOH    NC7H14O
                     IC8-OQOOH    NC10MOOH     CH2S         HCCO
                     C2H5         C3H3         CH2CHCH2     CH3COCH2
                     IC3H7        C4H5         SC4H7        IC4H7
                     IC4H9P       IC4H9T       NC4H9P       NC4H9-OO
                     NC4-QOOH     NC4-OOQOOH   CYC5H5       NEOC5H11
                     NC5H11       NC5-QOOH     NC5H12OO     NC5-OOQOOH
                     C6H5O        C7H7         NC7H15       IC8H17
                     IC8-QOOH     IC8H17-OO    IC8-OOQOOH   RC9H11
                     NC10H19      NC12H25-OO   CH4          C2-OQOOH
                     C7H8         C6H5C2H3     IC8H16       CH3OO
                     C2-QOOH      C2-OOQOOH    NC3H7        IC3H5CHO
                     C6H5CHO      CH3CO        IC8T-QOOH    CH3OH
                     C3H5OH       IC8H16O      CHCHCH3      NC7H13
                     C6H5C2H2""",
          reactions='all',
          transport='Mix',
          initial_state=state(temperature=300.0, pressure=OneAtm))

#-------------------------------------------------------------------------------
# Species data
#-------------------------------------------------------------------------------

species(name=u'N2',
        atoms='N:2',
        thermo=(NASA([300.00, 1050.00],
                     [ 3.85321336E+00, -2.44053349E-03,  5.35160392E-06,
                      -3.75608397E-09,  9.22684330E-13, -1.07969550E+03,
                       1.60217419E+00]),
                NASA([1050.00, 3500.00],
                     [ 2.71287897E+00,  1.90359754E-03, -8.54297556E-07,
                       1.84170938E-10, -1.54715988E-14, -8.40225273E+02,
                       7.15926558E+00])),
        transport=gas_transport(geom='linear',
                                diam=3.621,
                                well_depth=97.53,
                                polar=1.76,
                                rot_relax=4.0))

species(name=u'IC8H18',
        atoms='H:18 C:8',
        thermo=(NASA([300.00, 1390.00],
                     [-5.96912081E+00,  1.20872170E-01, -9.61538217E-05,
                       4.13489289E-08, -7.18982936E-12, -3.02675122E+04,
                       5.27954202E+01]),
                NASA([1390.00, 3500.00],
                     [ 2.06155885E+01,  4.43694094E-02, -1.35968858E-05,
                       1.75327622E-09, -6.83090880E-14, -3.76580614E+04,
                      -8.42148793E+01])),
        transport=gas_transport(geom='nonlinear',
                                diam=6.17,
                                well_depth=494.0,
                                rot_relax=1.0))

species(name=u'TMBENZ',
        atoms='H:12 C:9',
        thermo=(NASA([300.00, 1800.00],
                     [-2.75522789E+00,  8.39491691E-02, -5.21867417E-05,
                       1.62235790E-08, -2.02559281E-12, -4.59793488E+03,
                       4.12457040E+01]),
                NASA([1800.00, 3500.00],
                     [ 1.47576861E+01,  4.50315825E-02, -1.97554195E-05,
                       4.21197817E-09, -3.57314917E-13, -1.09025839E+04,
                      -5.35378398E+01])),
        transport=gas_transport(geom='nonlinear',
                                diam=5.96,
                                well_depth=523.6,
                                rot_relax=1.0))

species(name=u'NPBENZ',
        atoms='H:12 C:9',
        thermo=(NASA([300.00, 1600.00],
                     [-5.58650157E+00,  9.92161261E-02, -7.26605920E-05,
                       2.68653231E-08, -3.96348393E-12, -1.13154446E+03,
                       5.33514397E+01]),
                NASA([1600.00, 3500.00],
                     [ 1.88963371E+01,  3.80090295E-02, -1.52789389E-05,
                       2.95630099E-09, -2.27699217E-13, -8.96605283E+03,
                      -7.62711275E+01])),
        transport=gas_transport(geom='nonlinear',
                                diam=5.68,
                                well_depth=495.3,
                                dipole=0.43,
                                polar=12.3,
                                rot_relax=1.0))

species(name=u'NC12H26',
        atoms='H:26 C:12',
        thermo=(NASA([300.00, 1800.00],
                     [-2.66627705E+00,  1.47343892E-01, -9.43301934E-05,
                       3.05488933E-08, -3.97016449E-12, -4.00651514E+04,
                       5.32033350E+01]),
                NASA([1800.00, 3500.00],
                     [ 3.61414095E+01,  6.11045883E-02, -2.24641073E-05,
                       3.93182440E-09, -2.73349362E-13, -5.40359186E+04,
                      -1.56831960E+02])),
        transport=gas_transport(geom='nonlinear',
                                diam=7.6,
                                well_depth=580.0,
                                rot_relax=1.0))

species(name=u'CO2',
        atoms='C:1 O:2',
        thermo=(NASA([300.00, 1620.00],
                     [ 2.44892797E+00,  8.54596135E-03, -6.60570102E-06,
                       2.52769046E-09, -3.80099332E-13, -4.83922906E+04,
                       9.47557732E+00]),
                NASA([1620.00, 3500.00],
                     [ 5.07830985E+00,  2.05366041E-03, -5.94311265E-07,
                       5.38675131E-11,  1.66346855E-15, -4.92442103E+04,
                      -4.47815290E+00])),
        transport=gas_transport(geom='linear',
                                diam=3.763,
                                well_depth=244.0,
                                polar=2.65,
                                rot_relax=2.1))

species(name=u'H2O',
        atoms='H:2 O:1',
        thermo=(NASA([300.00, 1590.00],
                     [ 4.03530937E+00, -6.87559833E-04,  2.86629214E-06,
                      -1.50552360E-09,  2.55006790E-13, -3.02783278E+04,
                      -1.99201641E-01]),
                NASA([1590.00, 3500.00],
                     [ 2.30940463E+00,  3.65433887E-03, -1.22983871E-06,
                       2.11931683E-10, -1.50333493E-14, -2.97294901E+04,
                       8.92765177E+00])),
        transport=gas_transport(geom='nonlinear',
                                diam=2.605,
                                well_depth=572.4,
                                dipole=1.844,
                                rot_relax=4.0))

species(name=u'O2',
        atoms='O:2',
        thermo=(NASA([300.00, 760.00],
                     [ 3.46035080E+00, -8.85011121E-04,  5.15281056E-06,
                      -5.40712413E-09,  1.87809542E-12, -1.02942573E+03,
                       5.02236126E+00]),
                NASA([760.00, 3500.00],
                     [ 2.81750648E+00,  2.49838007E-03, -1.52493521E-06,
                       4.50547608E-10, -4.87702792E-14, -9.31713392E+02,
                       7.94729337E+00])),
        transport=gas_transport(geom='linear',
                                diam=3.458,
                                well_depth=107.4,
                                polar=1.6,
                                rot_relax=3.8))

species(name=u'H2',
        atoms='H:2',
        thermo=(NASA([300.00, 750.00],
                     [ 3.08866003E+00,  2.53968841E-03, -5.72992027E-06,
                       5.71701843E-09, -1.98865970E-12, -9.92148124E+02,
                      -2.43823459E+00]),
                NASA([750.00, 3500.00],
                     [ 3.73110902E+00, -8.86706214E-04,  1.12286897E-06,
                      -3.74349782E-10,  4.17963674E-14, -1.08851547E+03,
                      -5.35285855E+00])),
        transport=gas_transport(geom='linear',
                                diam=2.92,
                                well_depth=38.0,
                                polar=0.79,
                                rot_relax=280.0))

species(name=u'CO',
        atoms='C:1 O:1',
        thermo=(NASA([300.00, 1000.00],
                     [ 3.81890943E+00, -2.40697343E-03,  5.75226966E-06,
                      -4.28629830E-09,  1.11070419E-12, -1.43689533E+04,
                       2.49992060E+00]),
                NASA([1000.00, 3500.00],
                     [ 2.68595014E+00,  2.12486373E-03, -1.04548608E-06,
                       2.45538864E-10, -2.22550981E-14, -1.41423615E+04,
                       7.96579426E+00])),
        transport=gas_transport(geom='linear',
                                diam=3.65,
                                well_depth=98.1,
                                polar=1.95,
                                rot_relax=1.8))

species(name=u'OH',
        atoms='H:1 O:1',
        thermo=(NASA([300.00, 880.00],
                     [ 3.37995109E+00,  6.13440526E-04, -1.06464235E-06,
                       1.14489214E-09, -3.76228211E-13,  3.45699735E+03,
                       2.70689352E+00]),
                NASA([880.00, 3500.00],
                     [ 3.62538436E+00, -5.02165281E-04,  8.36958463E-07,
                      -2.95714531E-10,  3.30350486E-14,  3.41380110E+03,
                       1.55419440E+00])),
        transport=gas_transport(geom='linear',
                                diam=2.75,
                                well_depth=80.0))

species(name=u'HO2',
        atoms='H:1 O:2',
        thermo=(NASA([300.00, 1540.00],
                     [ 2.85241381E+00,  5.40257188E-03, -3.80535043E-06,
                       1.51268170E-09, -2.40354212E-13,  4.47851086E+02,
                       9.84483831E+00]),
                NASA([1540.00, 3500.00],
                     [ 4.16318067E+00,  1.99798265E-03, -4.89192086E-07,
                       7.71153172E-11, -7.30772104E-15,  4.41348948E+01,
                       2.95517985E+00])),
        transport=gas_transport(geom='nonlinear',
                                diam=3.458,
                                well_depth=107.4,
                                rot_relax=1.0))

species(name=u'C3H6',
        atoms='H:6 C:3',
        thermo=(NASA([300.00, 1800.00],
                     [-2.61886761E-01,  3.20704567E-02, -2.02723602E-05,
                       6.66956086E-09, -8.90307969E-13,  1.26157099E+03,
                       2.37162283E+01]),
                NASA([1800.00, 3500.00],
                     [ 9.21549195E+00,  1.10096151E-02, -2.72165887E-06,
                       1.69301120E-10,  1.25058839E-14, -2.15028535E+03,
                      -2.75773224E+01])),
        transport=gas_transport(geom='nonlinear',
                                diam=4.14,
                                well_depth=307.8,
                                rot_relax=1.0))

species(name=u'HCO3',
        atoms='H:1 C:1 O:3',
        thermo=(NASA([300.00, 1800.00],
                     [ 3.79300672E+00,  1.14391621E-02, -6.60008362E-06,
                       1.86137482E-09, -2.10212913E-13, -1.73410522E+04,
                       1.25345680E+01]),
                NASA([1800.00, 3500.00],
                     [ 5.04067718E+00,  8.66656109E-03, -4.28958277E-06,
                       1.00563376E-09, -9.13599886E-14, -1.77902136E+04,
                       5.78191516E+00])),
        transport=gas_transport(geom='nonlinear',
                                diam=3.59,
                                well_depth=498.0))

species(name=u'CH2CHO',
        atoms='H:3 C:2 O:1',
        thermo=(NASA([300.00, 1030.00],
                     [ 2.15742069E-01,  2.78720987E-02, -2.67403448E-05,
                       1.43321353E-08, -3.22098924E-12,  6.73694406E+02,
                       2.26661724E+01]),
                NASA([1030.00, 3500.00],
                     [ 3.66502520E+00,  1.44768244E-02, -7.23266377E-06,
                       1.70580456E-09, -1.56345856E-13, -3.68579193E+01,
                       5.92341850E+00])),
        transport=gas_transport(geom='nonlinear',
                                diam=3.97,
                                well_depth=436.0,
                                rot_relax=2.0))

species(name=u'C2H5OO',
        atoms='H:5 C:2 O:2',
        thermo=(NASA([300.00, 1260.00],
                     [ 1.82119985E+00,  3.02125747E-02, -2.10221378E-05,
                       8.17907984E-09, -1.38302289E-12, -3.99501980E+03,
                       1.91151548E+01]),
                NASA([1260.00, 3500.00],
                     [ 4.82335647E+00,  2.06819188E-02, -9.67611879E-06,
                       2.17589519E-09, -1.91914821E-13, -4.75156327E+03,
                       3.93765088E+00])),
        transport=gas_transport(geom='nonlinear',
                                diam=4.53,
                                well_depth=362.6,
                                rot_relax=1.5))

species(name=u'CH3CHO',
        atoms='H:4 C:2 O:1',
        thermo=(NASA([300.00, 1800.00],
                     [ 9.91751377E-01,  2.23500313E-02, -1.35975169E-05,
                       4.27666307E-09, -5.48877497E-13, -2.10792434E+04,
                       1.99667711E+01]),
                NASA([1800.00, 3500.00],
                     [ 6.27018126E+00,  1.06201871E-02, -3.82264672E-06,
                       6.56340789E-10, -4.60549581E-14, -2.29794782E+04,
                      -8.60119259E+00])),
        transport=gas_transport(geom='nonlinear',
                                diam=3.97,
                                well_depth=436.0,
                                rot_relax=2.0))

species(name=u'CH3',
        atoms='H:3 C:1',
        thermo=(NASA([300.00, 1270.00],
                     [ 3.53327401E+00,  3.61488008E-03,  1.00739068E-06,
                      -1.39958516E-09,  3.34014277E-13,  1.63060366E+04,
                       2.10113860E+00]),
                NASA([1270.00, 3500.00],
                     [ 2.57723974E+00,  6.62601164E-03, -2.54906392E-06,
                       4.67320141E-10, -3.34867663E-14,  1.65488693E+04,
                       6.94195966E+00])),
        transport=gas_transport(geom='linear',
                                diam=3.8,
                                well_depth=144.0))

species(name=u'NC5H10',
        atoms='H:10 C:5',
        thermo=(NASA([300.00, 1800.00],
                     [-6.89551964E-01,  5.46638348E-02, -3.33910611E-05,
                       1.03751453E-08, -1.30620882E-12, -5.97063504E+03,
                       3.03853541E+01]),
                NASA([1800.00, 3500.00],
                     [ 1.11929736E+01,  2.82582223E-02, -1.13863841E-05,
                       2.22526491E-09, -1.74280993E-13, -1.02483443E+04,
                      -3.39253533E+01])),
        transport=gas_transport(geom='nonlinear',
                                diam=5.2,
                                well_depth=408.0,
                                rot_relax=1.0))

species(name=u'C6H5',
        atoms='H:5 C:6',
        thermo=(NASA([300.00, 1690.00],
                     [-4.30972117E+00,  6.26640688E-02, -5.17175663E-05,
                       2.05535263E-08, -3.12973113E-12,  3.88411849E+04,
                       4.30825907E+01]),
                NASA([1690.00, 3500.00],
                     [ 2.37494889E+01, -3.74826288E-03,  7.22829016E-06,
                      -2.69927706E-09,  3.10032681E-13,  2.93571719E+04,
                      -1.07010346E+02])),
        transport=gas_transport(geom='nonlinear',
                                diam=5.23,
                                well_depth=468.5,
                                polar=10.3,
                                rot_relax=1.0))

species(name=u'HCO',
        atoms='H:1 C:1 O:1',
        thermo=(NASA([300.00, 920.00],
                     [ 3.74218864E+00,  2.75844059E-05,  6.16298892E-06,
                      -5.89177898E-09,  1.73431136E-12,  4.07330951E+03,
                       5.45007090E+00]),
                NASA([920.00, 3500.00],
                     [ 2.44772078E+00,  5.65570555E-03, -3.01329556E-06,
                       7.57702524E-10, -7.26129631E-14,  4.31149160E+03,
                       1.15871953E+01])),
        transport=gas_transport(geom='nonlinear',
                                diam=3.59,
                                well_depth=498.0))

species(name=u'CH3OOH',
        atoms='H:4 C:1 O:2',
        thermo=(NASA([300.00, 1800.00],
                     [ 5.93430876E+00,  1.04356674E-02, -3.01974623E-06,
                       1.41830001E-10,  3.83264515E-14, -1.81342471E+04,
                      -2.80822136E+00]),
                NASA([1800.00, 3500.00],
                     [ 5.50146514E+00,  1.13975421E-02, -3.82130848E-06,
                       4.38704910E-10, -2.90617476E-15, -1.79784234E+04,
                      -4.65581411E-01])),
        transport=gas_transport(geom='nonlinear',
                                diam=3.626,
                                well_depth=481.8,
                                rot_relax=1.0))

species(name=u'NC7H14',
        atoms='H:14 C:7',
        thermo=(NASA([300.00, 1800.00],
                     [-1.22797309E+00,  7.92825302E-02, -4.98360912E-05,
                       1.58931983E-08, -2.04231877E-12, -1.17316124E+04,
                       3.62789089E+01]),
                NASA([1800.00, 3500.00],
                     [ 1.82668105E+01,  3.59607890E-02, -1.37346402E-05,
                       2.52229050E-09, -1.85248240E-13, -1.87497345E+04,
                      -6.92309265E+01])),
        transport=gas_transport(geom='nonlinear',
                                diam=6.31,
                                well_depth=459.98,
                                rot_relax=1.0))

species(name=u'C2H4',
        atoms='H:4 C:2',
        thermo=(NASA([300.00, 1800.00],
                     [ 2.66161697E-01,  1.94272328E-02, -1.14541158E-05,
                       3.49691054E-09, -4.39228267E-13,  5.45399123E+03,
                       1.95264329E+01]),
                NASA([1800.00, 3500.00],
                     [ 4.49333672E+00,  1.00335105E-02, -3.62601388E-06,
                       5.97613541E-10, -3.65481279E-14,  3.93220822E+03,
                      -3.35192020E+00])),
        transport=gas_transport(geom='nonlinear',
                                diam=3.971,
                                well_depth=280.8,
                                rot_relax=1.5))

species(name=u'CH3O',
        atoms='H:3 C:1 O:1',
        thermo=(NASA([300.00, 700.00],
                     [ 2.13962537E+00,  6.20453130E-03,  1.01791740E-05,
                      -1.49984471E-08,  5.85415708E-12,  9.80135371E+02,
                       1.31002120E+01]),
                NASA([700.00, 3500.00],
                     [ 6.88420582E-01,  1.44971301E-02, -7.59068052E-06,
                       1.92522389E-09, -1.90011116E-13,  1.18330404E+03,
                       1.95838279E+01])),
        transport=gas_transport(geom='nonlinear',
                                diam=3.69,
                                well_depth=417.0,
                                dipole=1.7,
                                rot_relax=2.0))

species(name=u'C2H3',
        atoms='H:3 C:2',
        thermo=(NASA([300.00, 700.00],
                     [ 2.74606708E+00,  3.71341276E-03,  1.60736225E-05,
                      -2.12880236E-08,  8.22995002E-12,  3.33332148E+04,
                       1.05346375E+01]),
                NASA([700.00, 3500.00],
                     [ 7.05094230E-01,  1.53761148E-02, -8.91788178E-06,
                       2.51340905E-09, -2.70561650E-13,  3.36189510E+04,
                       1.96531878E+01])),
        transport=gas_transport(geom='nonlinear',
                                diam=4.1,
                                well_depth=209.0,
                                rot_relax=1.0))

species(name=u'CH2O',
        atoms='H:2 C:1 O:1',
        thermo=(NASA([300.00, 930.00],
                     [ 3.13463322E+00,  1.80037482E-03,  8.80336316E-06,
                      -8.92465077E-09,  2.63639286E-12, -1.50171301E+04,
                       7.57920580E+00]),
                NASA([930.00, 3500.00],
                     [ 1.06639253E+00,  1.06960337E-02, -5.54447373E-06,
                       1.36053696E-09, -1.28442554E-13, -1.46324373E+04,
                       1.74071779E+01])),
        transport=gas_transport(geom='nonlinear',
                                diam=3.59,
                                well_depth=498.0,
                                rot_relax=2.0))

species(name=u'H2O2',
        atoms='H:2 O:2',
        thermo=(NASA([300.00, 1180.00],
                     [ 2.91896355E+00,  9.92397296E-03, -8.56537418E-06,
                       4.23738723E-09, -8.61930485E-13, -1.76139998E+04,
                       8.76340177E+00]),
                NASA([1180.00, 3500.00],
                     [ 4.56163072E+00,  4.35560969E-03, -1.48694629E-06,
                       2.38275424E-10, -1.46610352E-14, -1.80016693E+04,
                       5.66597119E-01])),
        transport=gas_transport(geom='nonlinear',
                                diam=3.458,
                                well_depth=107.4,
                                rot_relax=3.8))

species(name=u'NC12-QOOH',
        atoms='H:25 C:12 O:2',
        thermo=(NASA([300.00, 1800.00],
                     [ 5.27389362E-01,  1.49210016E-01, -9.74843011E-05,
                       3.21038575E-08, -4.22337617E-12, -3.01517645E+04,
                       4.45950809E+01]),
                NASA([1800.00, 3500.00],
                     [ 4.28763735E+01,  5.51011626E-02, -1.90602563E-05,
                       3.05791504E-09, -1.89217484E-13, -4.53973988E+04,
                      -1.84606456E+02])),
        transport=gas_transport(geom='nonlinear',
                                diam=7.6,
                                well_depth=680.0,
                                rot_relax=1.0))

species(name=u'NC12H25',
        atoms='H:25 C:12',
        thermo=(NASA([300.00, 1800.00],
                     [-2.06085145E+00,  1.41179787E-01, -8.91506513E-05,
                       2.83740186E-08, -3.62710595E-12, -1.66984825E+04,
                       5.11161660E+01]),
                NASA([1800.00, 3500.00],
                     [ 3.17005579E+01,  6.61544325E-02, -2.66295229E-05,
                       5.21804509E-09, -4.10998518E-13, -2.88525898E+04,
                      -1.31607624E+02])),
        transport=gas_transport(geom='nonlinear',
                                diam=7.6,
                                well_depth=580.0,
                                rot_relax=1.0))

species(name=u'NC12-OQOOH',
        atoms='H:24 C:12 O:3',
        thermo=(NASA([300.00, 1800.00],
                     [ 4.95723376E+00,  1.38569107E-01, -8.77018710E-05,
                       2.67924404E-08, -3.24092235E-12, -6.80315984E+04,
                       2.28446447E+01]),
                NASA([1800.00, 3500.00],
                     [ 2.89762540E+01,  8.51935060E-02, -4.32222039E-05,
                       1.03184896E-08, -9.52873634E-13, -7.66784457E+04,
                      -1.07151303E+02])),
        transport=gas_transport(geom='nonlinear',
                                diam=7.6,
                                well_depth=680.0,
                                rot_relax=1.0))

species(name=u'NC10H20',
        atoms='H:20 C:10',
        thermo=(NASA([300.00, 1800.00],
                     [-2.31417710E+00,  1.16973130E-01, -7.49614029E-05,
                       2.42311952E-08, -3.14284562E-12, -2.02333700E+04,
                       4.88909878E+01]),
                NASA([1800.00, 3500.00],
                     [ 2.82971791E+01,  4.89478938E-02, -1.82737062E-05,
                       3.23575201E-09, -2.26811843E-13, -3.12534582E+04,
                      -1.16784058E+02])),
        transport=gas_transport(geom='nonlinear',
                                diam=7.15,
                                well_depth=540.98,
                                rot_relax=1.0))

species(name=u'NC12-OOQOOH',
        atoms='H:25 C:12 O:4',
        thermo=(NASA([300.00, 1800.00],
                     [ 2.75932352E+00,  1.56509843E-01, -1.02670720E-04,
                       3.37662211E-08, -4.43110898E-12, -4.86621157E+04,
                       3.55767286E+01]),
                NASA([1800.00, 3500.00],
                     [ 4.68889668E+01,  5.84439691E-02, -2.09491580E-05,
                       3.49897609E-09, -2.27324946E-13, -6.45487872E+04,
                      -2.03262107E+02])),
        transport=gas_transport(geom='nonlinear',
                                diam=7.6,
                                well_depth=680.0,
                                rot_relax=1.0))

species(name=u'H',
        atoms='H:1',
        thermo=(NASA([300.00, 1490.00],
                     [ 2.50000000E+00, -4.07455160E-15,  5.98527266E-18,
                      -3.43074982E-21,  6.74775716E-25,  2.54716200E+04,
                      -4.60117600E-01]),
                NASA([1490.00, 3500.00],
                     [ 2.50000000E+00,  7.40336223E-15, -5.56967416E-18,
                       1.73924876E-21, -1.92673709E-25,  2.54716200E+04,
                      -4.60117600E-01])),
        transport=gas_transport(geom='atom',
                                diam=2.05,
                                well_depth=145.0))

species(name=u'O',
        atoms='O:1',
        thermo=(NASA([300.00, 950.00],
                     [ 2.95200330E+00, -1.68459131E-03,  2.55897854E-06,
                      -1.77574473E-09,  4.66034833E-13,  2.91471652E+04,
                       2.94136507E+00]),
                NASA([950.00, 3500.00],
                     [ 2.57318360E+00, -8.95609984E-05,  4.05096303E-08,
                      -8.39812674E-12,  9.43621991E-16,  2.92191409E+04,
                       4.74952023E+00])),
        transport=gas_transport(geom='atom',
                                diam=2.75,
                                well_depth=80.0))

species(name=u'HCO3H',
        atoms='H:2 C:1 O:3',
        thermo=(NASA([300.00, 1750.00],
                     [ 2.47434199E+00,  2.16898607E-02, -1.63512235E-05,
                       5.87745807E-09, -8.18701091E-13, -3.54892796E+04,
                       1.72835470E+01]),
                NASA([1750.00, 3500.00],
                     [ 1.00230668E+01,  4.43563253E-03, -1.56188514E-06,
                       2.43424395E-10, -1.38391379E-14, -3.81313332E+04,
                      -2.33590722E+01])),
        transport=gas_transport(geom='nonlinear',
                                diam=4.12,
                                well_depth=443.2,
                                rot_relax=1.0))

species(name=u'C2H2',
        atoms='H:2 C:2',
        thermo=(NASA([300.00, 970.00],
                     [ 1.83812159E+00,  1.64533925E-02, -1.93408005E-05,
                       1.24068047E-08, -3.14627391E-12,  2.61425043E+04,
                       9.54239252E+00]),
                NASA([970.00, 3500.00],
                     [ 4.61193612E+00,  5.01498204E-03, -1.65253694E-06,
                       2.49922532E-10, -1.30568636E-14,  2.56043843E+04,
                      -3.75517096E+00])),
        transport=gas_transport(geom='linear',
                                diam=4.1,
                                well_depth=209.0,
                                rot_relax=2.5))

species(name=u'CH2CO',
        atoms='H:2 C:2 O:1',
        thermo=(NASA([300.00, 1410.00],
                     [ 2.49197065E+00,  1.58706066E-02, -1.26271528E-05,
                       5.33991909E-09, -9.11597189E-13, -7.58486732E+03,
                       1.06694385E+01]),
                NASA([1410.00, 3500.00],
                     [ 6.03578795E+00,  5.81722422E-03, -1.93206512E-06,
                       2.83140054E-10, -1.50051612E-14, -8.58422380E+03,
                      -7.64505060E+00])),
        transport=gas_transport(geom='nonlinear',
                                diam=3.97,
                                well_depth=436.0,
                                rot_relax=2.0))

species(name=u'C2H6',
        atoms='H:6 C:2',
        thermo=(NASA([300.00, 1800.00],
                     [-2.74461309E-01,  2.56422430E-02, -1.44720586E-05,
                       4.30555164E-09, -5.30740425E-13, -1.10464360E+04,
                       2.20452775E+01]),
                NASA([1800.00, 3500.00],
                     [ 4.39373503E+00,  1.52684734E-02, -5.82725051E-06,
                       1.10377088E-09, -8.60486537E-14, -1.27269866E+04,